<?xml version="1.0" encoding="UTF-8"?>

<!-- generated on 2025-03-09 18:10:39 by 
<configuration xmlns:xsi="http://www.w3.org/2001/XMLSchema-instance" xsi:noNamespaceSchemaLocation="http://sumo.dlr.de/xsd/Configuration.xsd">

    <input>
        <osm-files value="TRUE"/>
    </input>

    <output>
        <opendrive-output value="TRUE"/>
    </output>

    <projection>
        <proj value="+proj=tmerc +lat_0=25.039667 +lon_0=121.571220"/>
    </projection>

    <processing>
        <geometry.remove value="true"/>
        <offset.disable-normalization value="true"/>
        <roundabouts.guess value="true"/>
        <edges.join value="true"/>
    </processing>

    <building_defaults>
        <default.lanewidth value="3.350000"/>
        <default.sidewalk-width value="2.800000"/>
    </building_defaults>

    <tls_building>
        <tls.group-signals value="true"/>
    </tls_building>

    <ramp_guessing>
        <ramps.guess value="true"/>
    </ramp_guessing>

    <edge_removal>
        <keep-edges.by-type value="highway.motorway,highway.motorway_link,highway.trunk,highway.trunk_link,highway.primary,highway.primary_link,highway.secondary,highway.secondary_link,highway.tertiary,highway.tertiary_link,highway.unclassified,highway.residential,"/>
    </edge_removal>

    <junctions>
        <junctions.join value="true"/>
    </junctions>

    <pedestrian>
        <sidewalks.guess value="true"/>
    </pedestrian>

    <formats>
        <osm.sidewalks value="true"/>
        <osm.crossings value="true"/>
    </formats>

    <report>
        <aggregate-warnings value="5"/>
    </report>

</configuration>
-->

<OpenDRIVE>
    <header revMajor="1" revMinor="4" name="" version="1.00" date="Sun Mar  9 18:10:39 2025" north="1058.31" south="-93.38" east="1001.82" west="-267.72">
        <geoReference>
 <![CDATA[
 +proj=tmerc +lat_0=25.039667 +lon_0=121.571220
]]>
        </geoReference>
    </header>
    <road name="??????????????????372???" length="158.44386151" id="700" junction="-1">
        <link>
            <predecessor elementType="junction" elementId="1"/>
            <successor elementType="junction" elementId="2"/>
        </link>
        <type s="0" type="town"/>
        <planView>
            <geometry s="0.00000000" x="288.81233548" y="34.64490418" hdg="0.02126906" length="90.94994733">
                <line/>
            </geometry>
            <geometry s="90.94994733" x="379.74171193" y="36.57917857" hdg="0.02126906" length="13.85627802">
                <paramPoly3 aU="0.00000000" bU="10.38560266" cU="10.38540792" dU="-6.96593994" aV="0.00000000" bV="0.00000000" cV="1.62917306" dV="-0.54637311" pRange="normalized"/>
            </geometry>
            <geometry s="104.80622535" x="393.52063177" y="37.95533240" hdg="0.17781845" length="16.04980840">
                <line/>
            </geometry>
            <geometry s="120.85603375" x="409.31736541" y="40.79426810" hdg="0.17781845" length="13.88994128">
                <paramPoly3 aU="0.00000000" bU="10.41744439" cU="10.41744439" dU="-6.94503707" aV="0.00000000" bV="0.00000000" cV="0.06807448" dV="-0.02269174" pRange="normalized"/>
            </geometry>
            <geometry s="134.74597502" x="422.98017332" y="43.29581166" hdg="0.18435308" length="23.69788648">
                <line/>
            </geometry>
        </planView>
        <elevationProfile>
            <elevation s="0" a="0.00" b="0" c="0" d="0"/>
        </elevationProfile>
        <lateralProfile/>
        <lanes>
            <laneSection s="0">
                <center>
                    <lane id="0" type="none" level="true">
                        <link/>
                        <roadMark sOffset="0" type="solid" weight="standard" color="standard" width="0.13" laneChange="none"/>
                    </lane>
                </center>
                <right>
                    <lane id="-1" type="driving" level="true">
                        <link/>
                        <width sOffset="0" a="3.35" b="0" c="0" d="0"/>
                        <roadMark sOffset="0" type="solid" weight="standard" color="standard" width="0.13" laneChange="none"/>
                        <speed sOffset="0" max="13.89"/>
                    </lane>
                    <lane id="-2" type="sidewalk" level="true">
                        <link/>
                        <width sOffset="0" a="2.80" b="0" c="0" d="0"/>
                        <roadMark sOffset="0" type="solid" weight="standard" color="standard" width="0.13" laneChange="none"/>
                        <speed sOffset="0" max="13.89"/>
                    </lane>
                 </right>
            </laneSection>
        </lanes>
        <objects/>
    </road>
    <road name="??????????????????236???" length="12.30998424" id="701" junction="-1">
        <link>
            <predecessor elementType="junction" elementId="3"/>
            <successor elementType="junction" elementId="4"/>
        </link>
        <type s="0" type="town"/>
        <planView>
            <geometry s="0.00000000" x="65.45275570" y="-59.89655845" hdg="-1.58950957" length="0.20000000">
                <line/>
            </geometry>
            <geometry s="0.20000000" x="65.44901327" y="-60.09652344" hdg="-1.58950957" length="11.90998424">
                <paramPoly3 aU="-0.00000000" bU="8.93242342" cU="8.93249338" dU="-5.95541059" aV="0.00000000" bV="0.00000000" cV="-0.14063932" dV="0.04404871" pRange="normalized"/>
            </geometry>
            <geometry s="12.10998424" x="65.12958705" y="-72.00213702" hdg="-1.60620599" length="0.20000000">
                <line/>
            </geometry>
        </planView>
        <elevationProfile>
            <elevation s="0" a="0.00" b="0" c="0" d="0"/>
        </elevationProfile>
        <lateralProfile/>
        <lanes>
            <laneSection s="0">
                <center>
                    <lane id="0" type="none" level="true">
                        <link/>
                        <roadMark sOffset="0" type="solid" weight="standard" color="standard" width="0.13" laneChange="none"/>
                    </lane>
                </center>
                <right>
                    <lane id="-1" type="driving" level="true">
                        <link/>
                        <width sOffset="0" a="3.35" b="0" c="0" d="0"/>
                        <roadMark sOffset="0" type="solid" weight="standard" color="standard" width="0.13" laneChange="none"/>
                        <speed sOffset="0" max="22.22"/>
                    </lane>
                 </right>
            </laneSection>
        </lanes>
        <objects/>
    </road>
    <road name="??????????????????236???" length="137.00218962" id="702" junction="-1">
        <link>
            <predecessor elementType="junction" elementId="5"/>
            <successor elementType="junction" elementId="3"/>
        </link>
        <type s="0" type="town"/>
        <planView>
            <geometry s="0.00000000" x="69.74730950" y="77.32951519" hdg="-1.60169699" length="29.83283135">
                <line/>
            </geometry>
            <geometry s="29.83283135" x="68.82560185" y="47.51092567" hdg="-1.60169699" length="6.07311106">
                <paramPoly3 aU="-0.00000000" bU="4.55483306" cU="4.55482415" dU="-3.03654945" aV="0.00000000" bV="0.00000000" cV="0.01754310" dV="-0.01152787" pRange="normalized"/>
            </geometry>
            <geometry s="35.90594241" x="68.64398100" y="41.44053128" hdg="-1.60158665" length="37.69193173">
                <line/>
            </geometry>
            <geometry s="73.59787414" x="67.48361759" y="3.76646495" hdg="-1.60158665" length="5.89594795">
                <paramPoly3 aU="-0.00000000" bU="4.42196069" cU="4.42196411" dU="-2.94797721" aV="0.00000000" bV="-0.00000000" cV="0.00515552" dV="-0.00526881" pRange="normalized"/>
            </geometry>
            <geometry s="79.49382209" x="67.30199490" y="-2.12668457" hdg="-1.60282940" length="57.50836752">
                <line/>
            </geometry>
        </planView>
        <elevationProfile>
            <elevation s="0" a="0.00" b="0" c="0" d="0"/>
        </elevationProfile>
        <lateralProfile/>
        <lanes>
            <laneSection s="0">
                <center>
                    <lane id="0" type="none" level="true">
                        <link/>
                        <roadMark sOffset="0" type="solid" weight="standard" color="standard" width="0.13" laneChange="none"/>
                    </lane>
                </center>
                <right>
                    <lane id="-1" type="driving" level="true">
                        <link/>
                        <width sOffset="0" a="3.35" b="0" c="0" d="0"/>
                        <roadMark sOffset="0" type="solid" weight="standard" color="standard" width="0.13" laneChange="none"/>
                        <speed sOffset="0" max="22.22"/>
                    </lane>
                 </right>
            </laneSection>
        </lanes>
        <objects/>
    </road>
    <road name="??????????????????236???" length="40.01124478" id="703" junction="-1">
        <link>
            <predecessor elementType="junction" elementId="6"/>
            <successor elementType="junction" elementId="5"/>
        </link>
        <type s="0" type="town"/>
        <planView>
            <geometry s="0.00000000" x="71.25063685" y="126.46705727" hdg="-1.60147992" length="40.01124478">
                <line/>
            </geometry>
        </planView>
        <elevationProfile>
            <elevation s="0" a="0.00" b="0" c="0" d="0"/>
        </elevationProfile>
        <lateralProfile/>
        <lanes>
            <laneSection s="0">
                <center>
                    <lane id="0" type="none" level="true">
                        <link/>
                        <roadMark sOffset="0" type="solid" weight="standard" color="standard" width="0.13" laneChange="none"/>
                    </lane>
                </center>
                <right>
                    <lane id="-1" type="driving" level="true">
                        <link/>
                        <width sOffset="0" a="3.35" b="0" c="0" d="0"/>
                        <roadMark sOffset="0" type="solid" weight="standard" color="standard" width="0.13" laneChange="none"/>
                        <speed sOffset="0" max="22.22"/>
                    </lane>
                 </right>
            </laneSection>
        </lanes>
        <objects/>
    </road>
    <road name="?????????120???" length="113.39942583" id="704" junction="-1">
        <link>
            <predecessor elementType="junction" elementId="7"/>
            <successor elementType="junction" elementId="8"/>
        </link>
        <type s="0" type="town"/>
        <planView>
            <geometry s="0.00000000" x="10.25487640" y="286.75935291" hdg="3.11524899" length="46.04579595">
                <line/>
            </geometry>
            <geometry s="46.04579595" x="-35.77494286" y="287.97222737" hdg="3.11524899" length="13.88999996">
                <paramPoly3 aU="0.00000000" bU="10.41749996" cU="10.41749996" dU="-6.94500002" aV="-0.00000000" bV="0.00000000" cV="0.00174730" dV="-0.00058243" pRange="normalized"/>
            </geometry>
            <geometry s="59.93579591" x="-49.66015397" y="288.33693401" hdg="3.11541672" length="36.90809520">
                <line/>
            </geometry>
            <geometry s="96.84389112" x="-86.55560556" y="289.30292747" hdg="3.11541672" length="13.88999984">
                <paramPoly3 aU="0.00000000" bU="10.41749985" cU="10.41749985" dU="-6.94500010" aV="-0.00000000" bV="0.00000000" cV="-0.00359161" dV="0.00119720" pRange="normalized"/>
            </geometry>
            <geometry s="110.73389095" x="-100.44078418" y="289.66886322" hdg="3.11507195" length="2.66553487">
                <line/>
            </geometry>
        </planView>
        <elevationProfile>
            <elevation s="0" a="0.00" b="0" c="0" d="0"/>
        </elevationProfile>
        <lateralProfile/>
        <lanes>
            <laneSection s="0">
                <center>
                    <lane id="0" type="none" level="true">
                        <link/>
                        <roadMark sOffset="0" type="solid" weight="standard" color="standard" width="0.13" laneChange="none"/>
                    </lane>
                </center>
                <right>
                    <lane id="-1" type="driving" level="true">
                        <link/>
                        <width sOffset="0" a="3.35" b="0" c="0" d="0"/>
                        <roadMark sOffset="0" type="solid" weight="standard" color="standard" width="0.13" laneChange="none"/>
                        <speed sOffset="0" max="13.89"/>
                    </lane>
                    <lane id="-2" type="sidewalk" level="true">
                        <link/>
                        <width sOffset="0" a="2.80" b="0" c="0" d="0"/>
                        <roadMark sOffset="0" type="solid" weight="standard" color="standard" width="0.13" laneChange="none"/>
                        <speed sOffset="0" max="13.89"/>
                    </lane>
                 </right>
            </laneSection>
        </lanes>
        <objects/>
    </road>
    <road name="?????????120???" length="42.41010657" id="705" junction="-1">
        <link>
            <predecessor elementType="junction" elementId="9"/>
            <successor elementType="junction" elementId="7"/>
        </link>
        <type s="0" type="town"/>
        <planView>
            <geometry s="0.00000000" x="67.94643863" y="285.24192191" hdg="3.11530337" length="42.41010657">
                <line/>
            </geometry>
        </planView>
        <elevationProfile>
            <elevation s="0" a="0.00" b="0" c="0" d="0"/>
        </elevationProfile>
        <lateralProfile/>
        <lanes>
            <laneSection s="0">
                <center>
                    <lane id="0" type="none" level="true">
                        <link/>
                        <roadMark sOffset="0" type="solid" weight="standard" color="standard" width="0.13" laneChange="none"/>
                    </lane>
                </center>
                <right>
                    <lane id="-1" type="driving" level="true">
                        <link/>
                        <width sOffset="0" a="3.35" b="0" c="0" d="0"/>
                        <roadMark sOffset="0" type="solid" weight="standard" color="standard" width="0.13" laneChange="none"/>
                        <speed sOffset="0" max="13.89"/>
                    </lane>
                    <lane id="-2" type="sidewalk" level="true">
                        <link/>
                        <width sOffset="0" a="2.80" b="0" c="0" d="0"/>
                        <roadMark sOffset="0" type="solid" weight="standard" color="standard" width="0.13" laneChange="none"/>
                        <speed sOffset="0" max="13.89"/>
                    </lane>
                 </right>
            </laneSection>
        </lanes>
        <objects/>
    </road>
    <road name="?????????120???" length="46.29124730" id="706" junction="-1">
        <link>
            <predecessor elementType="junction" elementId="10"/>
            <successor elementType="junction" elementId="9"/>
        </link>
        <type s="0" type="town"/>
        <planView>
            <geometry s="0.00000000" x="129.11685355" y="283.63846106" hdg="3.11532472" length="46.29124730">
                <line/>
            </geometry>
        </planView>
        <elevationProfile>
            <elevation s="0" a="0.00" b="0" c="0" d="0"/>
        </elevationProfile>
        <lateralProfile/>
        <lanes>
            <laneSection s="0">
                <center>
                    <lane id="0" type="none" level="true">
                        <link/>
                        <roadMark sOffset="0" type="solid" weight="standard" color="standard" width="0.13" laneChange="none"/>
                    </lane>
                </center>
                <right>
                    <lane id="-1" type="driving" level="true">
                        <link/>
                        <width sOffset="0" a="3.35" b="0" c="0" d="0"/>
                        <roadMark sOffset="0" type="solid" weight="standard" color="standard" width="0.13" laneChange="none"/>
                        <speed sOffset="0" max="13.89"/>
                    </lane>
                    <lane id="-2" type="sidewalk" level="true">
                        <link/>
                        <width sOffset="0" a="2.80" b="0" c="0" d="0"/>
                        <roadMark sOffset="0" type="solid" weight="standard" color="standard" width="0.13" laneChange="none"/>
                        <speed sOffset="0" max="13.89"/>
                    </lane>
                 </right>
            </laneSection>
        </lanes>
        <objects/>
    </road>
    <road name="?????????120???" length="136.79428524" id="707" junction="-1">
        <link>
            <predecessor elementType="junction" elementId="11"/>
            <successor elementType="junction" elementId="10"/>
        </link>
        <type s="0" type="town"/>
        <planView>
            <geometry s="0.00000000" x="281.22050574" y="279.65593509" hdg="3.11377763" length="45.00518025">
                <line/>
            </geometry>
            <geometry s="45.00518025" x="236.23273408" y="280.90759382" hdg="3.11377763" length="13.88999177">
                <paramPoly3 aU="0.00000000" bU="10.41749221" cU="10.41749221" dU="-6.94500520" aV="-0.00000000" bV="-0.00000000" cV="0.02548637" dV="-0.00849547" pRange="normalized"/>
            </geometry>
            <geometry s="58.89517202" x="222.34765514" y="281.27690977" hdg="3.11622413" length="19.71576561">
                <line/>
            </geometry>
            <geometry s="78.61093763" x="202.63823335" y="281.77701605" hdg="3.11622413" length="13.88999995">
                <paramPoly3 aU="0.00000000" bU="10.41749995" cU="10.41749995" dU="-6.94500003" aV="-0.00000000" bV="0.00000000" cV="0.00194259" dV="-0.00064753" pRange="normalized"/>
            </geometry>
            <geometry s="92.50093758" x="188.75266992" y="282.12805244" hdg="3.11641060" length="44.29334766">
                <line/>
            </geometry>
        </planView>
        <elevationProfile>
            <elevation s="0" a="0.00" b="0" c="0" d="0"/>
        </elevationProfile>
        <lateralProfile/>
        <lanes>
            <laneSection s="0">
                <center>
                    <lane id="0" type="none" level="true">
                        <link/>
                        <roadMark sOffset="0" type="solid" weight="standard" color="standard" width="0.13" laneChange="none"/>
                    </lane>
                </center>
                <right>
                    <lane id="-1" type="driving" level="true">
                        <link/>
                        <width sOffset="0" a="3.35" b="0" c="0" d="0"/>
                        <roadMark sOffset="0" type="solid" weight="standard" color="standard" width="0.13" laneChange="none"/>
                        <speed sOffset="0" max="13.89"/>
                    </lane>
                    <lane id="-2" type="sidewalk" level="true">
                        <link/>
                        <width sOffset="0" a="2.80" b="0" c="0" d="0"/>
                        <roadMark sOffset="0" type="solid" weight="standard" color="standard" width="0.13" laneChange="none"/>
                        <speed sOffset="0" max="13.89"/>
                    </lane>
                 </right>
            </laneSection>
        </lanes>
        <objects/>
    </road>
    <road name="?????????120???" length="115.13420320" id="708" junction="-1">
        <link>
            <predecessor elementType="junction" elementId="12"/>
            <successor elementType="junction" elementId="11"/>
        </link>
        <type s="0" type="town"/>
        <planView>
            <geometry s="0.00000000" x="411.73040363" y="276.21154171" hdg="3.11529722" length="115.13420320">
                <line/>
            </geometry>
        </planView>
        <elevationProfile>
            <elevation s="0" a="0.00" b="0" c="0" d="0"/>
        </elevationProfile>
        <lateralProfile/>
        <lanes>
            <laneSection s="0">
                <center>
                    <lane id="0" type="none" level="true">
                        <link/>
                        <roadMark sOffset="0" type="solid" weight="standard" color="standard" width="0.13" laneChange="none"/>
                    </lane>
                </center>
                <right>
                    <lane id="-1" type="driving" level="true">
                        <link/>
                        <width sOffset="0" a="3.35" b="0" c="0" d="0"/>
                        <roadMark sOffset="0" type="solid" weight="standard" color="standard" width="0.13" laneChange="none"/>
                        <speed sOffset="0" max="13.89"/>
                    </lane>
                    <lane id="-2" type="sidewalk" level="true">
                        <link/>
                        <width sOffset="0" a="2.80" b="0" c="0" d="0"/>
                        <roadMark sOffset="0" type="solid" weight="standard" color="standard" width="0.13" laneChange="none"/>
                        <speed sOffset="0" max="13.89"/>
                    </lane>
                 </right>
            </laneSection>
        </lanes>
        <objects/>
    </road>
    <road name="??????????????????275???7???" length="115.66020246" id="709" junction="-1">
        <link>
            <predecessor elementType="junction" elementId="13"/>
            <successor elementType="junction" elementId="14"/>
        </link>
        <type s="0" type="town"/>
        <planView>
            <geometry s="0.00000000" x="10.41878527" y="204.89253088" hdg="3.12030964" length="63.57522983">
                <line/>
            </geometry>
            <geometry s="63.57522983" x="-53.14204637" y="206.24550134" hdg="3.12030964" length="13.88999967">
                <paramPoly3 aU="0.00000000" bU="10.41749973" cU="10.41749901" dU="-6.94499946" aV="-0.00000000" bV="-0.00000000" cV="-0.00675470" dV="0.00359630" pRange="normalized"/>
            </geometry>
            <geometry s="77.46522950" x="-67.02883270" y="206.54425778" hdg="3.12004849" length="2.42188929">
                <paramPoly3 aU="0.00000000" bU="1.81641697" cU="1.81641683" dU="-1.21094456" aV="-0.00000000" bV="-0.00000000" cV="-0.00153169" dV="0.00106275" pRange="normalized"/>
            </geometry>
            <geometry s="79.88711880" x="-69.45014980" y="206.59690015" hdg="3.12011724" length="13.88999935">
                <paramPoly3 aU="0.00000000" bU="10.41749951" cU="10.41749962" dU="-6.94499980" aV="-0.00000000" bV="-0.00000000" cV="0.00010831" dV="0.00052712" pRange="normalized"/>
            </geometry>
            <geometry s="93.77711815" x="-83.33695990" y="206.89453548" hdg="3.12028983" length="9.71954489">
                <paramPoly3 aU="0.00000000" bU="7.28965866" cU="7.28965826" dU="-4.85977221" aV="-0.00000000" bV="-0.00000000" cV="0.00415738" dV="-0.00239549" pRange="normalized"/>
            </geometry>
            <geometry s="103.49666304" x="-93.05433682" y="207.09981210" hdg="3.12044461" length="11.96353942">
                <paramPoly3 aU="0.00000000" bU="8.97265456" cU="8.97265459" dU="-5.98176974" aV="-0.00000000" bV="0.00000000" cV="0.00001685" dV="-0.00027436" pRange="normalized"/>
            </geometry>
            <geometry s="115.46020246" x="-105.01519560" y="207.35305618" hdg="3.12035663" length="0.20000000">
                <line/>
            </geometry>
        </planView>
        <elevationProfile>
            <elevation s="0" a="0.00" b="0" c="0" d="0"/>
        </elevationProfile>
        <lateralProfile/>
        <lanes>
            <laneSection s="0">
                <center>
                    <lane id="0" type="none" level="true">
                        <link/>
                        <roadMark sOffset="0" type="solid" weight="standard" color="standard" width="0.13" laneChange="none"/>
                    </lane>
                </center>
                <right>
                    <lane id="-1" type="driving" level="true">
                        <link/>
                        <width sOffset="0" a="3.35" b="0" c="0" d="0"/>
                        <roadMark sOffset="0" type="solid" weight="standard" color="standard" width="0.13" laneChange="none"/>
                        <speed sOffset="0" max="13.89"/>
                    </lane>
                    <lane id="-2" type="sidewalk" level="true">
                        <link/>
                        <width sOffset="0" a="2.80" b="0" c="0" d="0"/>
                        <roadMark sOffset="0" type="solid" weight="standard" color="standard" width="0.13" laneChange="none"/>
                        <speed sOffset="0" max="13.89"/>
                    </lane>
                 </right>
            </laneSection>
        </lanes>
        <objects/>
    </road>
    <road name="??????????????????423???" length="32.64458497" id="710" junction="-1">
        <link>
            <predecessor elementType="junction" elementId="15"/>
            <successor elementType="junction" elementId="16"/>
        </link>
        <type s="0" type="town"/>
        <planView>
            <geometry s="0.00000000" x="421.08963409" y="326.81794103" hdg="1.53754385" length="7.28983653">
                <line/>
            </geometry>
            <geometry s="7.28983653" x="421.33199455" y="334.10374764" hdg="1.53754385" length="13.88999996">
                <paramPoly3 aU="0.00000000" bU="10.41749997" cU="10.41749997" dU="-6.94500002" aV="0.00000000" bV="0.00000000" cV="-0.00167349" dV="0.00055783" pRange="normalized"/>
            </geometry>
            <geometry s="21.17983649" x="421.79490140" y="347.98603189" hdg="1.53738321" length="11.46474848">
                <line/>
            </geometry>
        </planView>
        <elevationProfile>
            <elevation s="0" a="0.00" b="0" c="0" d="0"/>
        </elevationProfile>
        <lateralProfile/>
        <lanes>
            <laneSection s="0">
                <center>
                    <lane id="0" type="none" level="true">
                        <link/>
                        <roadMark sOffset="0" type="solid" weight="standard" color="standard" width="0.13" laneChange="none"/>
                    </lane>
                </center>
                <right>
                    <lane id="-1" type="driving" level="true">
                        <link/>
                        <width sOffset="0" a="3.35" b="0" c="0" d="0"/>
                        <roadMark sOffset="0" type="solid" weight="standard" color="standard" width="0.13" laneChange="none"/>
                        <speed sOffset="0" max="13.89"/>
                    </lane>
                    <lane id="-2" type="sidewalk" level="true">
                        <link/>
                        <width sOffset="0" a="2.80" b="0" c="0" d="0"/>
                        <roadMark sOffset="0" type="solid" weight="standard" color="standard" width="0.13" laneChange="none"/>
                        <speed sOffset="0" max="13.89"/>
                    </lane>
                 </right>
            </laneSection>
        </lanes>
        <objects/>
    </road>
    <road name="??????????????????423???" length="27.88554022" id="711" junction="-1">
        <link>
            <predecessor elementType="junction" elementId="12"/>
            <successor elementType="junction" elementId="15"/>
        </link>
        <type s="0" type="town"/>
        <planView>
            <geometry s="0.00000000" x="419.65864798" y="283.65653086" hdg="1.53767773" length="27.88554022">
                <line/>
            </geometry>
        </planView>
        <elevationProfile>
            <elevation s="0" a="0.00" b="0" c="0" d="0"/>
        </elevationProfile>
        <lateralProfile/>
        <lanes>
            <laneSection s="0">
                <center>
                    <lane id="0" type="none" level="true">
                        <link/>
                        <roadMark sOffset="0" type="solid" weight="standard" color="standard" width="0.13" laneChange="none"/>
                    </lane>
                </center>
                <right>
                    <lane id="-1" type="driving" level="true">
                        <link/>
                        <width sOffset="0" a="3.35" b="0" c="0" d="0"/>
                        <roadMark sOffset="0" type="solid" weight="standard" color="standard" width="0.13" laneChange="none"/>
                        <speed sOffset="0" max="13.89"/>
                    </lane>
                    <lane id="-2" type="sidewalk" level="true">
                        <link/>
                        <width sOffset="0" a="2.80" b="0" c="0" d="0"/>
                        <roadMark sOffset="0" type="solid" weight="standard" color="standard" width="0.13" laneChange="none"/>
                        <speed sOffset="0" max="13.89"/>
                    </lane>
                 </right>
            </laneSection>
        </lanes>
        <objects/>
    </road>
    <road name="?????????" length="11.10471418" id="712" junction="-1">
        <link>
            <predecessor elementType="junction" elementId="17"/>
            <successor elementType="junction" elementId="18"/>
        </link>
        <type s="0" type="town"/>
        <planView>
            <geometry s="0.00000000" x="88.49565070" y="651.67499651" hdg="-1.60353460" length="11.10471418">
                <line/>
            </geometry>
        </planView>
        <elevationProfile>
            <elevation s="0" a="0.00" b="0" c="0" d="0"/>
        </elevationProfile>
        <lateralProfile/>
        <lanes>